76

Li  6.239596e+00  7.009967e+00  3.186599e+00
Li  7.723110e+00  6.913987e+00  7.349936e-01
Li  2.520809e+00  1.122950e+00  2.624531e+00
Li  4.029057e+00  7.825596e+00  4.824902e+00
Li  8.478260e+00  4.501659e+00  2.466749e+00
Li  1.790909e+00  5.170612e+00  2.012579e+00
Li  9.758754e+00  7.212110e+00  9.076815e+00
Li  1.018236e+01  6.568765e+00  2.632537e+00
Li  4.258842e+00  7.480438e+00  1.286240e+00
Li  2.222473e+00  9.714477e+00  4.947103e+00
Li  1.455759e+00  3.563062e+00  1.019469e+01
Li  3.539683e-01  9.780098e+00  2.647352e+00
Li  7.541387e-02  8.168676e+00  4.857067e+00
Li  2.947145e+00  1.061917e+00  9.859035e+00
Li  8.154740e-02  3.077268e+00  2.234960e+00
Li  5.440778e-01  1.545512e+00  4.314611e+00
Li  1.781340e+00  6.238361e+00  4.908675e+00
Li  9.386743e-01  7.298771e+00  4.548220e-01
Li  4.228240e+00  3.715485e+00  5.638035e+00
Li  1.510199e+00  5.786343e+00  8.737290e+00
Li  8.878366e+00  8.596768e+00  6.993282e+00
Li  4.233280e+00  9.696855e+00  2.937704e+00
Li  6.420219e+00  9.236313e+00  1.397135e+00
Li  1.575186e+00  7.795483e+00  7.152790e+00
Li  3.538162e+00  6.025343e+00  7.011711e+00
Li  6.169750e+00  4.069482e+00  3.992277e+00
Li  4.900605e+00  9.892824e+00  9.587751e+00
Li  2.623678e+00  9.591249e+00  8.901535e-01
Li  8.663905e+00  1.040277e+01  5.011604e+00
Li  4.050464e+00  5.692203e+00  3.576043e+00
Li  1.148214e+00  1.728733e+00  8.163745e+00
Li  2.642793e+00  1.646433e+00  6.077632e+00
Li  7.576524e+00  6.336476e+00  8.006265e+00
Li  8.842220e+00  2.726797e+00  2.874933e-01
Li  3.081527e+00  1.015416e+01  7.692554e+00
Li  6.965178e+00  1.031801e+01  7.409245e+00
Li  4.589156e+00  1.930108e+00  3.910637e+00
Li  4.895433e+00  1.376373e+00  8.024628e+00
Li  9.338958e+00  2.199730e+00  6.770098e+00
Li  7.429491e+00  4.660553e+00  9.931097e+00
Li  6.838957e+00  8.650476e+00  5.127466e+00
Li  5.952272e+00  4.362242e+00  7.798440e+00
Li  5.248330e+00  2.798882e+00  1.013783e+01
Li  8.468910e+00  6.613129e+00  4.507246e+00
Li  5.179609e+00  8.311110e+00  7.353269e+00
Li  5.598275e+00  6.717401e+00  9.717783e+00
Li  7.285834e+00  8.524953e-01  1.048329e+01
Li  6.416735e+00  2.286736e+00  6.091272e+00
Li  9.293908e+00  9.303542e+00  2.485098e-01
Li  6.712575e+00  3.002743e-01  3.505766e+00
Li  3.729781e+00  3.224506e+00  1.613615e+00
Li  1.005022e+01  4.008308e+00  8.524483e+00
Li  1.583190e+00  4.177773e+00  6.750048e+00
Li  6.604098e+00  2.605215e+00  1.848750e+00
Li  8.879600e+00  9.648188e-01  1.977065e+00
Li  1.023101e+00  9.577673e+00  9.237427e+00
Li  1.027525e+01  4.337261e+00  4.502184e+00
Li  8.050715e+00  4.486651e+00  6.031666e+00
Li  3.358421e+00  5.164996e+00  1.049835e+01
Li  9.333631e+00  6.560456e-01  8.831289e+00
Si  5.660032e-01  9.334989e-01  4.315857e-01
Si  1.008159e+01  5.992515e+00  6.636801e+00
Si  8.440402e+00  8.642757e+00  3.022614e+00
Si  3.130312e+00  7.870486e+00  9.233075e+00
Si  5.684354e+00  4.957412e+00  1.362956e+00
Si  2.324294e+00  3.449490e+00  3.889796e+00
Si  2.311946e+00  7.778539e+00  2.809635e+00
Si  4.907493e+00  1.045857e+01  5.764231e+00
Si  5.944967e+00  5.983019e+00  5.614887e+00
Si  4.899414e+00  8.094885e-01  1.277430e+00
Si  3.313273e+00  3.397712e+00  8.128380e+00
Si  8.384181e+00  2.680772e+00  4.106807e+00
Si  3.125167e-01  1.053265e+01  6.579989e+00
Si  7.328197e+00  8.658322e+00  9.335686e+00
Si  7.659231e+00  2.463156e+00  8.486215e+00
Si  9.946504e+00  5.150586e+00  2.632845e-01
